/*--------------------------------*- C++ -*----------------------------------*\
| =========                 |                                                 |
| \\      /  F ield         | OpenFOAM: The Open Source CFD Toolbox           |
|  \\    /   O peration     | Version:  2.1.x                                 |
|   \\  /    A nd           | Web:      www.OpenFOAM.org                      |
|    \\/     M anipulation  |                                                 |
\*---------------------------------------------------------------------------*/
FoamFile
{
    version     2.0;
    format      ascii;
    class       dictionary;
    object      sampleDict;
}
// * * * * * * * * * * * * * * * * * * * * * * * * * * * * * * * * * * * * //

// Set output format : choice of
//      xmgr
//      jplot
//      gnuplot
//      raw
//      vtk
//      csv
setFormat gnuplot;

// optionally define extra controls for the output formats
formatOptions
{
    ensight
    {
        format  ascii;
    }
}

interpolationScheme cellPoint;

// Fields to sample.
fields
(
    p
    nut
    nuTilda 
    U
);

type sets;
libs ("libsampling.so");

sets
(
    resAirfoil
    {
        type    cloud;
        axis    xyz;
        points  ((0.8 0.0 -1.0)(0.8 0.0 -0.984375)(0.8 0.0 -0.96875)(0.8 0.0 -0.953125)(0.8 0.0 -0.9375)(0.8 0.0 -0.921875)(0.8 0.0 -0.90625)(0.8 0.0 -0.890625)(0.8 0.0 -0.875)(0.8 0.0 -0.859375)(0.8 0.0 -0.84375)(0.8 0.0 -0.828125)(0.8 0.0 -0.8125)(0.8 0.0 -0.796875)(0.8 0.0 -0.78125)(0.8 0.0 -0.765625)(0.8 0.0 -0.75)(0.8 0.0 -0.734375)(0.8 0.0 -0.71875)(0.8 0.0 -0.703125)(0.8 0.0 -0.6875)(0.8 0.0 -0.671875)(0.8 0.0 -0.65625)(0.8 0.0 -0.640625)(0.8 0.0 -0.625)(0.8 0.0 -0.609375)(0.8 0.0 -0.59375)(0.8 0.0 -0.578125)(0.8 0.0 -0.5625)(0.8 0.0 -0.546875)(0.8 0.0 -0.53125)(0.8 0.0 -0.515625)(0.8 0.0 -0.5)(0.8 0.0 -0.484375)(0.8 0.0 -0.46875)(0.8 0.0 -0.453125)(0.8 0.0 -0.4375)(0.8 0.0 -0.421875)(0.8 0.0 -0.40625)(0.8 0.0 -0.390625)(0.8 0.0 -0.375)(0.8 0.0 -0.359375)(0.8 0.0 -0.34375)(0.8 0.0 -0.328125)(0.8 0.0 -0.3125)(0.8 0.0 -0.296875)(0.8 0.0 -0.28125)(0.8 0.0 -0.265625)(0.8 0.0 -0.25)(0.8 0.0 -0.234375)(0.8 0.0 -0.21875)(0.8 0.0 -0.203125)(0.8 0.0 -0.1875)(0.8 0.0 -0.171875)(0.8 0.0 -0.15625)(0.8 0.0 -0.140625)(0.8 0.0 -0.125)(0.8 0.0 -0.109375)(0.8 0.0 -0.09375)(0.8 0.0 -0.078125)(0.8 0.0 -0.0625)(0.8 0.0 -0.046875)(0.8 0.0 -0.03125)(0.8 0.0 -0.015625)(0.8 0.0 0.0)(0.8 0.0 0.015625)(0.8 0.0 0.03125)(0.8 0.0 0.046875)(0.8 0.0 0.0625)(0.8 0.0 0.078125)(0.8 0.0 0.09375)(0.8 0.0 0.109375)(0.8 0.0 0.125)(0.8 0.0 0.140625)(0.8 0.0 0.15625)(0.8 0.0 0.171875)(0.8 0.0 0.1875)(0.8 0.0 0.203125)(0.8 0.0 0.21875)(0.8 0.0 0.234375)(0.8 0.0 0.25)(0.8 0.0 0.265625)(0.8 0.0 0.28125)(0.8 0.0 0.296875)(0.8 0.0 0.3125)(0.8 0.0 0.328125)(0.8 0.0 0.34375)(0.8 0.0 0.359375)(0.8 0.0 0.375)(0.8 0.0 0.390625)(0.8 0.0 0.40625)(0.8 0.0 0.421875)(0.8 0.0 0.4375)(0.8 0.0 0.453125)(0.8 0.0 0.46875)(0.8 0.0 0.484375)(0.8 0.0 0.5)(0.8 0.0 0.515625)(0.8 0.0 0.53125)(0.8 0.0 0.546875)(0.8 0.0 0.5625)(0.8 0.0 0.578125)(0.8 0.0 0.59375)(0.8 0.0 0.609375)(0.8 0.0 0.625)(0.8 0.0 0.640625)(0.8 0.0 0.65625)(0.8 0.0 0.671875)(0.8 0.0 0.6875)(0.8 0.0 0.703125)(0.8 0.0 0.71875)(0.8 0.0 0.734375)(0.8 0.0 0.75)(0.8 0.0 0.765625)(0.8 0.0 0.78125)(0.8 0.0 0.796875)(0.8 0.0 0.8125)(0.8 0.0 0.828125)(0.8 0.0 0.84375)(0.8 0.0 0.859375)(0.8 0.0 0.875)(0.8 0.0 0.890625)(0.8 0.0 0.90625)(0.8 0.0 0.921875)(0.8 0.0 0.9375)(0.8 0.0 0.953125)(0.8 0.0 0.96875)(0.8 0.0 0.984375)(0.815625 0.0 -1.0)(0.815625 0.0 -0.984375)(0.815625 0.0 -0.96875)(0.815625 0.0 -0.953125)(0.815625 0.0 -0.9375)(0.815625 0.0 -0.921875)(0.815625 0.0 -0.90625)(0.815625 0.0 -0.890625)(0.815625 0.0 -0.875)(0.815625 0.0 -0.859375)(0.815625 0.0 -0.84375)(0.815625 0.0 -0.828125)(0.815625 0.0 -0.8125)(0.815625 0.0 -0.796875)(0.815625 0.0 -0.78125)(0.815625 0.0 -0.765625)(0.815625 0.0 -0.75)(0.815625 0.0 -0.734375)(0.815625 0.0 -0.71875)(0.815625 0.0 -0.703125)(0.815625 0.0 -0.6875)(0.815625 0.0 -0.671875)(0.815625 0.0 -0.65625)(0.815625 0.0 -0.640625)(0.815625 0.0 -0.625)(0.815625 0.0 -0.609375)(0.815625 0.0 -0.59375)(0.815625 0.0 -0.578125)(0.815625 0.0 -0.5625)(0.815625 0.0 -0.546875)(0.815625 0.0 -0.53125)(0.815625 0.0 -0.515625)(0.815625 0.0 -0.5)(0.815625 0.0 -0.484375)(0.815625 0.0 -0.46875)(0.815625 0.0 -0.453125)(0.815625 0.0 -0.4375)(0.815625 0.0 -0.421875)(0.815625 0.0 -0.40625)(0.815625 0.0 -0.390625)(0.815625 0.0 -0.375)(0.815625 0.0 -0.359375)(0.815625 0.0 -0.34375)(0.815625 0.0 -0.328125)(0.815625 0.0 -0.3125)(0.815625 0.0 -0.296875)(0.815625 0.0 -0.28125)(0.815625 0.0 -0.265625)(0.815625 0.0 -0.25)(0.815625 0.0 -0.234375)(0.815625 0.0 -0.21875)(0.815625 0.0 -0.203125)(0.815625 0.0 -0.1875)(0.815625 0.0 -0.171875)(0.815625 0.0 -0.15625)(0.815625 0.0 -0.140625)(0.815625 0.0 -0.125)(0.815625 0.0 -0.109375)(0.815625 0.0 -0.09375)(0.815625 0.0 -0.078125)(0.815625 0.0 -0.0625)(0.815625 0.0 -0.046875)(0.815625 0.0 -0.03125)(0.815625 0.0 -0.015625)(0.815625 0.0 0.0)(0.815625 0.0 0.015625)(0.815625 0.0 0.03125)(0.815625 0.0 0.046875)(0.815625 0.0 0.0625)(0.815625 0.0 0.078125)(0.815625 0.0 0.09375)(0.815625 0.0 0.109375)(0.815625 0.0 0.125)(0.815625 0.0 0.140625)(0.815625 0.0 0.15625)(0.815625 0.0 0.171875)(0.815625 0.0 0.1875)(0.815625 0.0 0.203125)(0.815625 0.0 0.21875)(0.815625 0.0 0.234375)(0.815625 0.0 0.25)(0.815625 0.0 0.265625)(0.815625 0.0 0.28125)(0.815625 0.0 0.296875)(0.815625 0.0 0.3125)(0.815625 0.0 0.328125)(0.815625 0.0 0.34375)(0.815625 0.0 0.359375)(0.815625 0.0 0.375)(0.815625 0.0 0.390625)(0.815625 0.0 0.40625)(0.815625 0.0 0.421875)(0.815625 0.0 0.4375)(0.815625 0.0 0.453125)(0.815625 0.0 0.46875)(0.815625 0.0 0.484375)(0.815625 0.0 0.5)(0.815625 0.0 0.515625)(0.815625 0.0 0.53125)(0.815625 0.0 0.546875)(0.815625 0.0 0.5625)(0.815625 0.0 0.578125)(0.815625 0.0 0.59375)(0.815625 0.0 0.609375)(0.815625 0.0 0.625)(0.815625 0.0 0.640625)(0.815625 0.0 0.65625)(0.815625 0.0 0.671875)(0.815625 0.0 0.6875)(0.815625 0.0 0.703125)(0.815625 0.0 0.71875)(0.815625 0.0 0.734375)(0.815625 0.0 0.75)(0.815625 0.0 0.765625)(0.815625 0.0 0.78125)(0.815625 0.0 0.796875)(0.815625 0.0 0.8125)(0.815625 0.0 0.828125)(0.815625 0.0 0.84375)(0.815625 0.0 0.859375)(0.815625 0.0 0.875)(0.815625 0.0 0.890625)(0.815625 0.0 0.90625)(0.815625 0.0 0.921875)(0.815625 0.0 0.9375)(0.815625 0.0 0.953125)(0.815625 0.0 0.96875)(0.815625 0.0 0.984375)(0.83125 0.0 -1.0)(0.83125 0.0 -0.984375)(0.83125 0.0 -0.96875)(0.83125 0.0 -0.953125)(0.83125 0.0 -0.9375)(0.83125 0.0 -0.921875)(0.83125 0.0 -0.90625)(0.83125 0.0 -0.890625)(0.83125 0.0 -0.875)(0.83125 0.0 -0.859375)(0.83125 0.0 -0.84375)(0.83125 0.0 -0.828125)(0.83125 0.0 -0.8125)(0.83125 0.0 -0.796875)(0.83125 0.0 -0.78125)(0.83125 0.0 -0.765625)(0.83125 0.0 -0.75)(0.83125 0.0 -0.734375)(0.83125 0.0 -0.71875)(0.83125 0.0 -0.703125)(0.83125 0.0 -0.6875)(0.83125 0.0 -0.671875)(0.83125 0.0 -0.65625)(0.83125 0.0 -0.640625)(0.83125 0.0 -0.625)(0.83125 0.0 -0.609375)(0.83125 0.0 -0.59375)(0.83125 0.0 -0.578125)(0.83125 0.0 -0.5625)(0.83125 0.0 -0.546875)(0.83125 0.0 -0.53125)(0.83125 0.0 -0.515625)(0.83125 0.0 -0.5)(0.83125 0.0 -0.484375)(0.83125 0.0 -0.46875)(0.83125 0.0 -0.453125)(0.83125 0.0 -0.4375)(0.83125 0.0 -0.421875)(0.83125 0.0 -0.40625)(0.83125 0.0 -0.390625)(0.83125 0.0 -0.375)(0.83125 0.0 -0.359375)(0.83125 0.0 -0.34375)(0.83125 0.0 -0.328125)(0.83125 0.0 -0.3125)(0.83125 0.0 -0.296875)(0.83125 0.0 -0.28125)(0.83125 0.0 -0.265625)(0.83125 0.0 -0.25)(0.83125 0.0 -0.234375)(0.83125 0.0 -0.21875)(0.83125 0.0 -0.203125)(0.83125 0.0 -0.1875)(0.83125 0.0 -0.171875)(0.83125 0.0 -0.15625)(0.83125 0.0 -0.140625)(0.83125 0.0 -0.125)(0.83125 0.0 -0.109375)(0.83125 0.0 -0.09375)(0.83125 0.0 -0.078125)(0.83125 0.0 -0.0625)(0.83125 0.0 -0.046875)(0.83125 0.0 -0.03125)(0.83125 0.0 -0.015625)(0.83125 0.0 0.0)(0.83125 0.0 0.015625)(0.83125 0.0 0.03125)(0.83125 0.0 0.046875)(0.83125 0.0 0.0625)(0.83125 0.0 0.078125)(0.83125 0.0 0.09375)(0.83125 0.0 0.109375)(0.83125 0.0 0.125)(0.83125 0.0 0.140625)(0.83125 0.0 0.15625)(0.83125 0.0 0.171875)(0.83125 0.0 0.1875)(0.83125 0.0 0.203125)(0.83125 0.0 0.21875)(0.83125 0.0 0.234375)(0.83125 0.0 0.25)(0.83125 0.0 0.265625)(0.83125 0.0 0.28125)(0.83125 0.0 0.296875)(0.83125 0.0 0.3125)(0.83125 0.0 0.328125)(0.83125 0.0 0.34375)(0.83125 0.0 0.359375)(0.83125 0.0 0.375)(0.83125 0.0 0.390625)(0.83125 0.0 0.40625)(0.83125 0.0 0.421875)(0.83125 0.0 0.4375)(0.83125 0.0 0.453125)(0.83125 0.0 0.46875)(0.83125 0.0 0.484375)(0.83125 0.0 0.5)(0.83125 0.0 0.515625)(0.83125 0.0 0.53125)(0.83125 0.0 0.546875)(0.83125 0.0 0.5625)(0.83125 0.0 0.578125)(0.83125 0.0 0.59375)(0.83125 0.0 0.609375)(0.83125 0.0 0.625)(0.83125 0.0 0.640625)(0.83125 0.0 0.65625)(0.83125 0.0 0.671875)(0.83125 0.0 0.6875)(0.83125 0.0 0.703125)(0.83125 0.0 0.71875)(0.83125 0.0 0.734375)(0.83125 0.0 0.75)(0.83125 0.0 0.765625)(0.83125 0.0 0.78125)(0.83125 0.0 0.796875)(0.83125 0.0 0.8125)(0.83125 0.0 0.828125)(0.83125 0.0 0.84375)(0.83125 0.0 0.859375)(0.83125 0.0 0.875)(0.83125 0.0 0.890625)(0.83125 0.0 0.90625)(0.83125 0.0 0.921875)(0.83125 0.0 0.9375)(0.83125 0.0 0.953125)(0.83125 0.0 0.96875)(0.83125 0.0 0.984375)(0.846875 0.0 -1.0)(0.846875 0.0 -0.984375)(0.846875 0.0 -0.96875)(0.846875 0.0 -0.953125)(0.846875 0.0 -0.9375)(0.846875 0.0 -0.921875)(0.846875 0.0 -0.90625)(0.846875 0.0 -0.890625)(0.846875 0.0 -0.875)(0.846875 0.0 -0.859375)(0.846875 0.0 -0.84375)(0.846875 0.0 -0.828125)(0.846875 0.0 -0.8125)(0.846875 0.0 -0.796875)(0.846875 0.0 -0.78125)(0.846875 0.0 -0.765625)(0.846875 0.0 -0.75)(0.846875 0.0 -0.734375)(0.846875 0.0 -0.71875)(0.846875 0.0 -0.703125)(0.846875 0.0 -0.6875)(0.846875 0.0 -0.671875)(0.846875 0.0 -0.65625)(0.846875 0.0 -0.640625)(0.846875 0.0 -0.625)(0.846875 0.0 -0.609375)(0.846875 0.0 -0.59375)(0.846875 0.0 -0.578125)(0.846875 0.0 -0.5625)(0.846875 0.0 -0.546875)(0.846875 0.0 -0.53125)(0.846875 0.0 -0.515625)(0.846875 0.0 -0.5)(0.846875 0.0 -0.484375)(0.846875 0.0 -0.46875)(0.846875 0.0 -0.453125)(0.846875 0.0 -0.4375)(0.846875 0.0 -0.421875)(0.846875 0.0 -0.40625)(0.846875 0.0 -0.390625)(0.846875 0.0 -0.375)(0.846875 0.0 -0.359375)(0.846875 0.0 -0.34375)(0.846875 0.0 -0.328125)(0.846875 0.0 -0.3125)(0.846875 0.0 -0.296875)(0.846875 0.0 -0.28125)(0.846875 0.0 -0.265625)(0.846875 0.0 -0.25)(0.846875 0.0 -0.234375)(0.846875 0.0 -0.21875)(0.846875 0.0 -0.203125)(0.846875 0.0 -0.1875)(0.846875 0.0 -0.171875)(0.846875 0.0 -0.15625)(0.846875 0.0 -0.140625)(0.846875 0.0 -0.125)(0.846875 0.0 -0.109375)(0.846875 0.0 -0.09375)(0.846875 0.0 -0.078125)(0.846875 0.0 -0.0625)(0.846875 0.0 -0.046875)(0.846875 0.0 -0.03125)(0.846875 0.0 -0.015625)(0.846875 0.0 0.0)(0.846875 0.0 0.015625)(0.846875 0.0 0.03125)(0.846875 0.0 0.046875)(0.846875 0.0 0.0625)(0.846875 0.0 0.078125)(0.846875 0.0 0.09375)(0.846875 0.0 0.109375)(0.846875 0.0 0.125)(0.846875 0.0 0.140625)(0.846875 0.0 0.15625)(0.846875 0.0 0.171875)(0.846875 0.0 0.1875)(0.846875 0.0 0.203125)(0.846875 0.0 0.21875)(0.846875 0.0 0.234375)(0.846875 0.0 0.25)(0.846875 0.0 0.265625)(0.846875 0.0 0.28125)(0.846875 0.0 0.296875)(0.846875 0.0 0.3125)(0.846875 0.0 0.328125)(0.846875 0.0 0.34375)(0.846875 0.0 0.359375)(0.846875 0.0 0.375)(0.846875 0.0 0.390625)(0.846875 0.0 0.40625)(0.846875 0.0 0.421875)(0.846875 0.0 0.4375)(0.846875 0.0 0.453125)(0.846875 0.0 0.46875)(0.846875 0.0 0.484375)(0.846875 0.0 0.5)(0.846875 0.0 0.515625)(0.846875 0.0 0.53125)(0.846875 0.0 0.546875)(0.846875 0.0 0.5625)(0.846875 0.0 0.578125)(0.846875 0.0 0.59375)(0.846875 0.0 0.609375)(0.846875 0.0 0.625)(0.846875 0.0 0.640625)(0.846875 0.0 0.65625)(0.846875 0.0 0.671875)(0.846875 0.0 0.6875)(0.846875 0.0 0.703125)(0.846875 0.0 0.71875)(0.846875 0.0 0.734375)(0.846875 0.0 0.75)(0.846875 0.0 0.765625)(0.846875 0.0 0.78125)(0.846875 0.0 0.796875)(0.846875 0.0 0.8125)(0.846875 0.0 0.828125)(0.846875 0.0 0.84375)(0.846875 0.0 0.859375)(0.846875 0.0 0.875)(0.846875 0.0 0.890625)(0.846875 0.0 0.90625)(0.846875 0.0 0.921875)(0.846875 0.0 0.9375)(0.846875 0.0 0.953125)(0.846875 0.0 0.96875)(0.846875 0.0 0.984375)(0.8625 0.0 -1.0)(0.8625 0.0 -0.984375)(0.8625 0.0 -0.96875)(0.8625 0.0 -0.953125)(0.8625 0.0 -0.9375)(0.8625 0.0 -0.921875)(0.8625 0.0 -0.90625)(0.8625 0.0 -0.890625)(0.8625 0.0 -0.875)(0.8625 0.0 -0.859375)(0.8625 0.0 -0.84375)(0.8625 0.0 -0.828125)(0.8625 0.0 -0.8125)(0.8625 0.0 -0.796875)(0.8625 0.0 -0.78125)(0.8625 0.0 -0.765625)(0.8625 0.0 -0.75)(0.8625 0.0 -0.734375)(0.8625 0.0 -0.71875)(0.8625 0.0 -0.703125)(0.8625 0.0 -0.6875)(0.8625 0.0 -0.671875)(0.8625 0.0 -0.65625)(0.8625 0.0 -0.640625)(0.8625 0.0 -0.625)(0.8625 0.0 -0.609375)(0.8625 0.0 -0.59375)(0.8625 0.0 -0.578125)(0.8625 0.0 -0.5625)(0.8625 0.0 -0.546875)(0.8625 0.0 -0.53125)(0.8625 0.0 -0.515625)(0.8625 0.0 -0.5)(0.8625 0.0 -0.484375)(0.8625 0.0 -0.46875)(0.8625 0.0 -0.453125)(0.8625 0.0 -0.4375)(0.8625 0.0 -0.421875)(0.8625 0.0 -0.40625)(0.8625 0.0 -0.390625)(0.8625 0.0 -0.375)(0.8625 0.0 -0.359375)(0.8625 0.0 -0.34375)(0.8625 0.0 -0.328125)(0.8625 0.0 -0.3125)(0.8625 0.0 -0.296875)(0.8625 0.0 -0.28125)(0.8625 0.0 -0.265625)(0.8625 0.0 -0.25)(0.8625 0.0 -0.234375)(0.8625 0.0 -0.21875)(0.8625 0.0 -0.203125)(0.8625 0.0 -0.1875)(0.8625 0.0 -0.171875)(0.8625 0.0 -0.15625)(0.8625 0.0 -0.140625)(0.8625 0.0 -0.125)(0.8625 0.0 -0.109375)(0.8625 0.0 -0.09375)(0.8625 0.0 -0.078125)(0.8625 0.0 -0.0625)(0.8625 0.0 -0.046875)(0.8625 0.0 -0.03125)(0.8625 0.0 -0.015625)(0.8625 0.0 0.0)(0.8625 0.0 0.015625)(0.8625 0.0 0.03125)(0.8625 0.0 0.046875)(0.8625 0.0 0.0625)(0.8625 0.0 0.078125)(0.8625 0.0 0.09375)(0.8625 0.0 0.109375)(0.8625 0.0 0.125)(0.8625 0.0 0.140625)(0.8625 0.0 0.15625)(0.8625 0.0 0.171875)(0.8625 0.0 0.1875)(0.8625 0.0 0.203125)(0.8625 0.0 0.21875)(0.8625 0.0 0.234375)(0.8625 0.0 0.25)(0.8625 0.0 0.265625)(0.8625 0.0 0.28125)(0.8625 0.0 0.296875)(0.8625 0.0 0.3125)(0.8625 0.0 0.328125)(0.8625 0.0 0.34375)(0.8625 0.0 0.359375)(0.8625 0.0 0.375)(0.8625 0.0 0.390625)(0.8625 0.0 0.40625)(0.8625 0.0 0.421875)(0.8625 0.0 0.4375)(0.8625 0.0 0.453125)(0.8625 0.0 0.46875)(0.8625 0.0 0.484375)(0.8625 0.0 0.5)(0.8625 0.0 0.515625)(0.8625 0.0 0.53125)(0.8625 0.0 0.546875)(0.8625 0.0 0.5625)(0.8625 0.0 0.578125)(0.8625 0.0 0.59375)(0.8625 0.0 0.609375)(0.8625 0.0 0.625)(0.8625 0.0 0.640625)(0.8625 0.0 0.65625)(0.8625 0.0 0.671875)(0.8625 0.0 0.6875)(0.8625 0.0 0.703125)(0.8625 0.0 0.71875)(0.8625 0.0 0.734375)(0.8625 0.0 0.75)(0.8625 0.0 0.765625)(0.8625 0.0 0.78125)(0.8625 0.0 0.796875)(0.8625 0.0 0.8125)(0.8625 0.0 0.828125)(0.8625 0.0 0.84375)(0.8625 0.0 0.859375)(0.8625 0.0 0.875)(0.8625 0.0 0.890625)(0.8625 0.0 0.90625)(0.8625 0.0 0.921875)(0.8625 0.0 0.9375)(0.8625 0.0 0.953125)(0.8625 0.0 0.96875)(0.8625 0.0 0.984375)(0.878125 0.0 -1.0)(0.878125 0.0 -0.984375)(0.878125 0.0 -0.96875)(0.878125 0.0 -0.953125)(0.878125 0.0 -0.9375)(0.878125 0.0 -0.921875)(0.878125 0.0 -0.90625)(0.878125 0.0 -0.890625)(0.878125 0.0 -0.875)(0.878125 0.0 -0.859375)(0.878125 0.0 -0.84375)(0.878125 0.0 -0.828125)(0.878125 0.0 -0.8125)(0.878125 0.0 -0.796875)(0.878125 0.0 -0.78125)(0.878125 0.0 -0.765625)(0.878125 0.0 -0.75)(0.878125 0.0 -0.734375)(0.878125 0.0 -0.71875)(0.878125 0.0 -0.703125)(0.878125 0.0 -0.6875)(0.878125 0.0 -0.671875)(0.878125 0.0 -0.65625)(0.878125 0.0 -0.640625)(0.878125 0.0 -0.625)(0.878125 0.0 -0.609375)(0.878125 0.0 -0.59375)(0.878125 0.0 -0.578125)(0.878125 0.0 -0.5625)(0.878125 0.0 -0.546875)(0.878125 0.0 -0.53125)(0.878125 0.0 -0.515625)(0.878125 0.0 -0.5)(0.878125 0.0 -0.484375)(0.878125 0.0 -0.46875)(0.878125 0.0 -0.453125)(0.878125 0.0 -0.4375)(0.878125 0.0 -0.421875)(0.878125 0.0 -0.40625)(0.878125 0.0 -0.390625)(0.878125 0.0 -0.375)(0.878125 0.0 -0.359375)(0.878125 0.0 -0.34375)(0.878125 0.0 -0.328125)(0.878125 0.0 -0.3125)(0.878125 0.0 -0.296875)(0.878125 0.0 -0.28125)(0.878125 0.0 -0.265625)(0.878125 0.0 -0.25)(0.878125 0.0 -0.234375)(0.878125 0.0 -0.21875)(0.878125 0.0 -0.203125)(0.878125 0.0 -0.1875)(0.878125 0.0 -0.171875)(0.878125 0.0 -0.15625)(0.878125 0.0 -0.140625)(0.878125 0.0 -0.125)(0.878125 0.0 -0.109375)(0.878125 0.0 -0.09375)(0.878125 0.0 -0.078125)(0.878125 0.0 -0.0625)(0.878125 0.0 -0.046875)(0.878125 0.0 -0.03125)(0.878125 0.0 -0.015625)(0.878125 0.0 0.0)(0.878125 0.0 0.015625)(0.878125 0.0 0.03125)(0.878125 0.0 0.046875)(0.878125 0.0 0.0625)(0.878125 0.0 0.078125)(0.878125 0.0 0.09375)(0.878125 0.0 0.109375)(0.878125 0.0 0.125)(0.878125 0.0 0.140625)(0.878125 0.0 0.15625)(0.878125 0.0 0.171875)(0.878125 0.0 0.1875)(0.878125 0.0 0.203125)(0.878125 0.0 0.21875)(0.878125 0.0 0.234375)(0.878125 0.0 0.25)(0.878125 0.0 0.265625)(0.878125 0.0 0.28125)(0.878125 0.0 0.296875)(0.878125 0.0 0.3125)(0.878125 0.0 0.328125)(0.878125 0.0 0.34375)(0.878125 0.0 0.359375)(0.878125 0.0 0.375)(0.878125 0.0 0.390625)(0.878125 0.0 0.40625)(0.878125 0.0 0.421875)(0.878125 0.0 0.4375)(0.878125 0.0 0.453125)(0.878125 0.0 0.46875)(0.878125 0.0 0.484375)(0.878125 0.0 0.5)(0.878125 0.0 0.515625)(0.878125 0.0 0.53125)(0.878125 0.0 0.546875)(0.878125 0.0 0.5625)(0.878125 0.0 0.578125)(0.878125 0.0 0.59375)(0.878125 0.0 0.609375)(0.878125 0.0 0.625)(0.878125 0.0 0.640625)(0.878125 0.0 0.65625)(0.878125 0.0 0.671875)(0.878125 0.0 0.6875)(0.878125 0.0 0.703125)(0.878125 0.0 0.71875)(0.878125 0.0 0.734375)(0.878125 0.0 0.75)(0.878125 0.0 0.765625)(0.878125 0.0 0.78125)(0.878125 0.0 0.796875)(0.878125 0.0 0.8125)(0.878125 0.0 0.828125)(0.878125 0.0 0.84375)(0.878125 0.0 0.859375)(0.878125 0.0 0.875)(0.878125 0.0 0.890625)(0.878125 0.0 0.90625)(0.878125 0.0 0.921875)(0.878125 0.0 0.9375)(0.878125 0.0 0.953125)(0.878125 0.0 0.96875)(0.878125 0.0 0.984375)(0.89375 0.0 -1.0)(0.89375 0.0 -0.984375)(0.89375 0.0 -0.96875)(0.89375 0.0 -0.953125)(0.89375 0.0 -0.9375)(0.89375 0.0 -0.921875)(0.89375 0.0 -0.90625)(0.89375 0.0 -0.890625)(0.89375 0.0 -0.875)(0.89375 0.0 -0.859375)(0.89375 0.0 -0.84375)(0.89375 0.0 -0.828125)(0.89375 0.0 -0.8125)(0.89375 0.0 -0.796875)(0.89375 0.0 -0.78125)(0.89375 0.0 -0.765625)(0.89375 0.0 -0.75)(0.89375 0.0 -0.734375)(0.89375 0.0 -0.71875)(0.89375 0.0 -0.703125)(0.89375 0.0 -0.6875)(0.89375 0.0 -0.671875)(0.89375 0.0 -0.65625)(0.89375 0.0 -0.640625)(0.89375 0.0 -0.625)(0.89375 0.0 -0.609375)(0.89375 0.0 -0.59375)(0.89375 0.0 -0.578125)(0.89375 0.0 -0.5625)(0.89375 0.0 -0.546875)(0.89375 0.0 -0.53125)(0.89375 0.0 -0.515625)(0.89375 0.0 -0.5)(0.89375 0.0 -0.484375)(0.89375 0.0 -0.46875)(0.89375 0.0 -0.453125)(0.89375 0.0 -0.4375)(0.89375 0.0 -0.421875)(0.89375 0.0 -0.40625)(0.89375 0.0 -0.390625)(0.89375 0.0 -0.375)(0.89375 0.0 -0.359375)(0.89375 0.0 -0.34375)(0.89375 0.0 -0.328125)(0.89375 0.0 -0.3125)(0.89375 0.0 -0.296875)(0.89375 0.0 -0.28125)(0.89375 0.0 -0.265625)(0.89375 0.0 -0.25)(0.89375 0.0 -0.234375)(0.89375 0.0 -0.21875)(0.89375 0.0 -0.203125)(0.89375 0.0 -0.1875)(0.89375 0.0 -0.171875)(0.89375 0.0 -0.15625)(0.89375 0.0 -0.140625)(0.89375 0.0 -0.125)(0.89375 0.0 -0.109375)(0.89375 0.0 -0.09375)(0.89375 0.0 -0.078125)(0.89375 0.0 -0.0625)(0.89375 0.0 -0.046875)(0.89375 0.0 -0.03125)(0.89375 0.0 -0.015625)(0.89375 0.0 0.0)(0.89375 0.0 0.015625)(0.89375 0.0 0.03125)(0.89375 0.0 0.046875)(0.89375 0.0 0.0625)(0.89375 0.0 0.078125)(0.89375 0.0 0.09375)(0.89375 0.0 0.109375)(0.89375 0.0 0.125)(0.89375 0.0 0.140625)(0.89375 0.0 0.15625)(0.89375 0.0 0.171875)(0.89375 0.0 0.1875)(0.89375 0.0 0.203125)(0.89375 0.0 0.21875)(0.89375 0.0 0.234375)(0.89375 0.0 0.25)(0.89375 0.0 0.265625)(0.89375 0.0 0.28125)(0.89375 0.0 0.296875)(0.89375 0.0 0.3125)(0.89375 0.0 0.328125)(0.89375 0.0 0.34375)(0.89375 0.0 0.359375)(0.89375 0.0 0.375)(0.89375 0.0 0.390625)(0.89375 0.0 0.40625)(0.89375 0.0 0.421875)(0.89375 0.0 0.4375)(0.89375 0.0 0.453125)(0.89375 0.0 0.46875)(0.89375 0.0 0.484375)(0.89375 0.0 0.5)(0.89375 0.0 0.515625)(0.89375 0.0 0.53125)(0.89375 0.0 0.546875)(0.89375 0.0 0.5625)(0.89375 0.0 0.578125)(0.89375 0.0 0.59375)(0.89375 0.0 0.609375)(0.89375 0.0 0.625)(0.89375 0.0 0.640625)(0.89375 0.0 0.65625)(0.89375 0.0 0.671875)(0.89375 0.0 0.6875)(0.89375 0.0 0.703125)(0.89375 0.0 0.71875)(0.89375 0.0 0.734375)(0.89375 0.0 0.75)(0.89375 0.0 0.765625)(0.89375 0.0 0.78125)(0.89375 0.0 0.796875)(0.89375 0.0 0.8125)(0.89375 0.0 0.828125)(0.89375 0.0 0.84375)(0.89375 0.0 0.859375)(0.89375 0.0 0.875)(0.89375 0.0 0.890625)(0.89375 0.0 0.90625)(0.89375 0.0 0.921875)(0.89375 0.0 0.9375)(0.89375 0.0 0.953125)(0.89375 0.0 0.96875)(0.89375 0.0 0.984375)(0.909375 0.0 -1.0)(0.909375 0.0 -0.984375)(0.909375 0.0 -0.96875)(0.909375 0.0 -0.953125)(0.909375 0.0 -0.9375)(0.909375 0.0 -0.921875)(0.909375 0.0 -0.90625)(0.909375 0.0 -0.890625)(0.909375 0.0 -0.875)(0.909375 0.0 -0.859375)(0.909375 0.0 -0.84375)(0.909375 0.0 -0.828125)(0.909375 0.0 -0.8125)(0.909375 0.0 -0.796875)(0.909375 0.0 -0.78125)(0.909375 0.0 -0.765625)(0.909375 0.0 -0.75)(0.909375 0.0 -0.734375)(0.909375 0.0 -0.71875)(0.909375 0.0 -0.703125)(0.909375 0.0 -0.6875)(0.909375 0.0 -0.671875)(0.909375 0.0 -0.65625)(0.909375 0.0 -0.640625)(0.909375 0.0 -0.625)(0.909375 0.0 -0.609375)(0.909375 0.0 -0.59375)(0.909375 0.0 -0.578125)(0.909375 0.0 -0.5625)(0.909375 0.0 -0.546875)(0.909375 0.0 -0.53125)(0.909375 0.0 -0.515625)(0.909375 0.0 -0.5)(0.909375 0.0 -0.484375)(0.909375 0.0 -0.46875)(0.909375 0.0 -0.453125)(0.909375 0.0 -0.4375)(0.909375 0.0 -0.421875)(0.909375 0.0 -0.40625)(0.909375 0.0 -0.390625)(0.909375 0.0 -0.375)(0.909375 0.0 -0.359375)(0.909375 0.0 -0.34375)(0.909375 0.0 -0.328125)(0.909375 0.0 -0.3125)(0.909375 0.0 -0.296875)(0.909375 0.0 -0.28125)(0.909375 0.0 -0.265625)(0.909375 0.0 -0.25)(0.909375 0.0 -0.234375)(0.909375 0.0 -0.21875)(0.909375 0.0 -0.203125)(0.909375 0.0 -0.1875)(0.909375 0.0 -0.171875)(0.909375 0.0 -0.15625)(0.909375 0.0 -0.140625)(0.909375 0.0 -0.125)(0.909375 0.0 -0.109375)(0.909375 0.0 -0.09375)(0.909375 0.0 -0.078125)(0.909375 0.0 -0.0625)(0.909375 0.0 -0.046875)(0.909375 0.0 -0.03125)(0.909375 0.0 -0.015625)(0.909375 0.0 0.0)(0.909375 0.0 0.015625)(0.909375 0.0 0.03125)(0.909375 0.0 0.046875)(0.909375 0.0 0.0625)(0.909375 0.0 0.078125)(0.909375 0.0 0.09375)(0.909375 0.0 0.109375)(0.909375 0.0 0.125)(0.909375 0.0 0.140625)(0.909375 0.0 0.15625)(0.909375 0.0 0.171875)(0.909375 0.0 0.1875)(0.909375 0.0 0.203125)(0.909375 0.0 0.21875)(0.909375 0.0 0.234375)(0.909375 0.0 0.25)(0.909375 0.0 0.265625)(0.909375 0.0 0.28125)(0.909375 0.0 0.296875)(0.909375 0.0 0.3125)(0.909375 0.0 0.328125)(0.909375 0.0 0.34375)(0.909375 0.0 0.359375)(0.909375 0.0 0.375)(0.909375 0.0 0.390625)(0.909375 0.0 0.40625)(0.909375 0.0 0.421875)(0.909375 0.0 0.4375)(0.909375 0.0 0.453125)(0.909375 0.0 0.46875)(0.909375 0.0 0.484375)(0.909375 0.0 0.5)(0.909375 0.0 0.515625)(0.909375 0.0 0.53125)(0.909375 0.0 0.546875)(0.909375 0.0 0.5625)(0.909375 0.0 0.578125)(0.909375 0.0 0.59375)(0.909375 0.0 0.609375)(0.909375 0.0 0.625)(0.909375 0.0 0.640625)(0.909375 0.0 0.65625)(0.909375 0.0 0.671875)(0.909375 0.0 0.6875)(0.909375 0.0 0.703125)(0.909375 0.0 0.71875)(0.909375 0.0 0.734375)(0.909375 0.0 0.75)(0.909375 0.0 0.765625)(0.909375 0.0 0.78125)(0.909375 0.0 0.796875)(0.909375 0.0 0.8125)(0.909375 0.0 0.828125)(0.909375 0.0 0.84375)(0.909375 0.0 0.859375)(0.909375 0.0 0.875)(0.909375 0.0 0.890625)(0.909375 0.0 0.90625)(0.909375 0.0 0.921875)(0.909375 0.0 0.9375)(0.909375 0.0 0.953125)(0.909375 0.0 0.96875)(0.909375 0.0 0.984375)(0.925 0.0 -1.0)(0.925 0.0 -0.984375)(0.925 0.0 -0.96875)(0.925 0.0 -0.953125)(0.925 0.0 -0.9375)(0.925 0.0 -0.921875)(0.925 0.0 -0.90625)(0.925 0.0 -0.890625)(0.925 0.0 -0.875)(0.925 0.0 -0.859375)(0.925 0.0 -0.84375)(0.925 0.0 -0.828125)(0.925 0.0 -0.8125)(0.925 0.0 -0.796875)(0.925 0.0 -0.78125)(0.925 0.0 -0.765625)(0.925 0.0 -0.75)(0.925 0.0 -0.734375)(0.925 0.0 -0.71875)(0.925 0.0 -0.703125)(0.925 0.0 -0.6875)(0.925 0.0 -0.671875)(0.925 0.0 -0.65625)(0.925 0.0 -0.640625)(0.925 0.0 -0.625)(0.925 0.0 -0.609375)(0.925 0.0 -0.59375)(0.925 0.0 -0.578125)(0.925 0.0 -0.5625)(0.925 0.0 -0.546875)(0.925 0.0 -0.53125)(0.925 0.0 -0.515625)(0.925 0.0 -0.5)(0.925 0.0 -0.484375)(0.925 0.0 -0.46875)(0.925 0.0 -0.453125)(0.925 0.0 -0.4375)(0.925 0.0 -0.421875)(0.925 0.0 -0.40625)(0.925 0.0 -0.390625)(0.925 0.0 -0.375)(0.925 0.0 -0.359375)(0.925 0.0 -0.34375)(0.925 0.0 -0.328125)(0.925 0.0 -0.3125)(0.925 0.0 -0.296875)(0.925 0.0 -0.28125)(0.925 0.0 -0.265625)(0.925 0.0 -0.25)(0.925 0.0 -0.234375)(0.925 0.0 -0.21875)(0.925 0.0 -0.203125)(0.925 0.0 -0.1875)(0.925 0.0 -0.171875)(0.925 0.0 -0.15625)(0.925 0.0 -0.140625)(0.925 0.0 -0.125)(0.925 0.0 -0.109375)(0.925 0.0 -0.09375)(0.925 0.0 -0.078125)(0.925 0.0 -0.0625)(0.925 0.0 -0.046875)(0.925 0.0 -0.03125)(0.925 0.0 -0.015625)(0.925 0.0 0.0)(0.925 0.0 0.015625)(0.925 0.0 0.03125)(0.925 0.0 0.046875)(0.925 0.0 0.0625)(0.925 0.0 0.078125)(0.925 0.0 0.09375)(0.925 0.0 0.109375)(0.925 0.0 0.125)(0.925 0.0 0.140625)(0.925 0.0 0.15625)(0.925 0.0 0.171875)(0.925 0.0 0.1875)(0.925 0.0 0.203125)(0.925 0.0 0.21875)(0.925 0.0 0.234375)(0.925 0.0 0.25)(0.925 0.0 0.265625)(0.925 0.0 0.28125)(0.925 0.0 0.296875)(0.925 0.0 0.3125)(0.925 0.0 0.328125)(0.925 0.0 0.34375)(0.925 0.0 0.359375)(0.925 0.0 0.375)(0.925 0.0 0.390625)(0.925 0.0 0.40625)(0.925 0.0 0.421875)(0.925 0.0 0.4375)(0.925 0.0 0.453125)(0.925 0.0 0.46875)(0.925 0.0 0.484375)(0.925 0.0 0.5)(0.925 0.0 0.515625)(0.925 0.0 0.53125)(0.925 0.0 0.546875)(0.925 0.0 0.5625)(0.925 0.0 0.578125)(0.925 0.0 0.59375)(0.925 0.0 0.609375)(0.925 0.0 0.625)(0.925 0.0 0.640625)(0.925 0.0 0.65625)(0.925 0.0 0.671875)(0.925 0.0 0.6875)(0.925 0.0 0.703125)(0.925 0.0 0.71875)(0.925 0.0 0.734375)(0.925 0.0 0.75)(0.925 0.0 0.765625)(0.925 0.0 0.78125)(0.925 0.0 0.796875)(0.925 0.0 0.8125)(0.925 0.0 0.828125)(0.925 0.0 0.84375)(0.925 0.0 0.859375)(0.925 0.0 0.875)(0.925 0.0 0.890625)(0.925 0.0 0.90625)(0.925 0.0 0.921875)(0.925 0.0 0.9375)(0.925 0.0 0.953125)(0.925 0.0 0.96875)(0.925 0.0 0.984375)(0.940625 0.0 -1.0)(0.940625 0.0 -0.984375)(0.940625 0.0 -0.96875)(0.940625 0.0 -0.953125)(0.940625 0.0 -0.9375)(0.940625 0.0 -0.921875)(0.940625 0.0 -0.90625)(0.940625 0.0 -0.890625)(0.940625 0.0 -0.875)(0.940625 0.0 -0.859375)(0.940625 0.0 -0.84375)(0.940625 0.0 -0.828125)(0.940625 0.0 -0.8125)(0.940625 0.0 -0.796875)(0.940625 0.0 -0.78125)(0.940625 0.0 -0.765625)(0.940625 0.0 -0.75)(0.940625 0.0 -0.734375)(0.940625 0.0 -0.71875)(0.940625 0.0 -0.703125)(0.940625 0.0 -0.6875)(0.940625 0.0 -0.671875)(0.940625 0.0 -0.65625)(0.940625 0.0 -0.640625)(0.940625 0.0 -0.625)(0.940625 0.0 -0.609375)(0.940625 0.0 -0.59375)(0.940625 0.0 -0.578125)(0.940625 0.0 -0.5625)(0.940625 0.0 -0.546875)(0.940625 0.0 -0.53125)(0.940625 0.0 -0.515625)(0.940625 0.0 -0.5)(0.940625 0.0 -0.484375)(0.940625 0.0 -0.46875)(0.940625 0.0 -0.453125)(0.940625 0.0 -0.4375)(0.940625 0.0 -0.421875)(0.940625 0.0 -0.40625)(0.940625 0.0 -0.390625)(0.940625 0.0 -0.375)(0.940625 0.0 -0.359375)(0.940625 0.0 -0.34375)(0.940625 0.0 -0.328125)(0.940625 0.0 -0.3125)(0.940625 0.0 -0.296875)(0.940625 0.0 -0.28125)(0.940625 0.0 -0.265625)(0.940625 0.0 -0.25)(0.940625 0.0 -0.234375)(0.940625 0.0 -0.21875)(0.940625 0.0 -0.203125)(0.940625 0.0 -0.1875)(0.940625 0.0 -0.171875)(0.940625 0.0 -0.15625)(0.940625 0.0 -0.140625)(0.940625 0.0 -0.125)(0.940625 0.0 -0.109375)(0.940625 0.0 -0.09375)(0.940625 0.0 -0.078125)(0.940625 0.0 -0.0625)(0.940625 0.0 -0.046875)(0.940625 0.0 -0.03125)(0.940625 0.0 -0.015625)(0.940625 0.0 0.0)(0.940625 0.0 0.015625)(0.940625 0.0 0.03125)(0.940625 0.0 0.046875)(0.940625 0.0 0.0625)(0.940625 0.0 0.078125)(0.940625 0.0 0.09375)(0.940625 0.0 0.109375)(0.940625 0.0 0.125)(0.940625 0.0 0.140625)(0.940625 0.0 0.15625)(0.940625 0.0 0.171875)(0.940625 0.0 0.1875)(0.940625 0.0 0.203125)(0.940625 0.0 0.21875)(0.940625 0.0 0.234375)(0.940625 0.0 0.25)(0.940625 0.0 0.265625)(0.940625 0.0 0.28125)(0.940625 0.0 0.296875)(0.940625 0.0 0.3125)(0.940625 0.0 0.328125)(0.940625 0.0 0.34375)(0.940625 0.0 0.359375)(0.940625 0.0 0.375)(0.940625 0.0 0.390625)(0.940625 0.0 0.40625)(0.940625 0.0 0.421875)(0.940625 0.0 0.4375)(0.940625 0.0 0.453125)(0.940625 0.0 0.46875)(0.940625 0.0 0.484375)(0.940625 0.0 0.5)(0.940625 0.0 0.515625)(0.940625 0.0 0.53125)(0.940625 0.0 0.546875)(0.940625 0.0 0.5625)(0.940625 0.0 0.578125)(0.940625 0.0 0.59375)(0.940625 0.0 0.609375)(0.940625 0.0 0.625)(0.940625 0.0 0.640625)(0.940625 0.0 0.65625)(0.940625 0.0 0.671875)(0.940625 0.0 0.6875)(0.940625 0.0 0.703125)(0.940625 0.0 0.71875)(0.940625 0.0 0.734375)(0.940625 0.0 0.75)(0.940625 0.0 0.765625)(0.940625 0.0 0.78125)(0.940625 0.0 0.796875)(0.940625 0.0 0.8125)(0.940625 0.0 0.828125)(0.940625 0.0 0.84375)(0.940625 0.0 0.859375)(0.940625 0.0 0.875)(0.940625 0.0 0.890625)(0.940625 0.0 0.90625)(0.940625 0.0 0.921875)(0.940625 0.0 0.9375)(0.940625 0.0 0.953125)(0.940625 0.0 0.96875)(0.940625 0.0 0.984375)(0.95625 0.0 -1.0)(0.95625 0.0 -0.984375)(0.95625 0.0 -0.96875)(0.95625 0.0 -0.953125)(0.95625 0.0 -0.9375)(0.95625 0.0 -0.921875)(0.95625 0.0 -0.90625)(0.95625 0.0 -0.890625)(0.95625 0.0 -0.875)(0.95625 0.0 -0.859375)(0.95625 0.0 -0.84375)(0.95625 0.0 -0.828125)(0.95625 0.0 -0.8125)(0.95625 0.0 -0.796875)(0.95625 0.0 -0.78125)(0.95625 0.0 -0.765625)(0.95625 0.0 -0.75)(0.95625 0.0 -0.734375)(0.95625 0.0 -0.71875)(0.95625 0.0 -0.703125)(0.95625 0.0 -0.6875)(0.95625 0.0 -0.671875)(0.95625 0.0 -0.65625)(0.95625 0.0 -0.640625)(0.95625 0.0 -0.625)(0.95625 0.0 -0.609375)(0.95625 0.0 -0.59375)(0.95625 0.0 -0.578125)(0.95625 0.0 -0.5625)(0.95625 0.0 -0.546875)(0.95625 0.0 -0.53125)(0.95625 0.0 -0.515625)(0.95625 0.0 -0.5)(0.95625 0.0 -0.484375)(0.95625 0.0 -0.46875)(0.95625 0.0 -0.453125)(0.95625 0.0 -0.4375)(0.95625 0.0 -0.421875)(0.95625 0.0 -0.40625)(0.95625 0.0 -0.390625)(0.95625 0.0 -0.375)(0.95625 0.0 -0.359375)(0.95625 0.0 -0.34375)(0.95625 0.0 -0.328125)(0.95625 0.0 -0.3125)(0.95625 0.0 -0.296875)(0.95625 0.0 -0.28125)(0.95625 0.0 -0.265625)(0.95625 0.0 -0.25)(0.95625 0.0 -0.234375)(0.95625 0.0 -0.21875)(0.95625 0.0 -0.203125)(0.95625 0.0 -0.1875)(0.95625 0.0 -0.171875)(0.95625 0.0 -0.15625)(0.95625 0.0 -0.140625)(0.95625 0.0 -0.125)(0.95625 0.0 -0.109375)(0.95625 0.0 -0.09375)(0.95625 0.0 -0.078125)(0.95625 0.0 -0.0625)(0.95625 0.0 -0.046875)(0.95625 0.0 -0.03125)(0.95625 0.0 -0.015625)(0.95625 0.0 0.0)(0.95625 0.0 0.015625)(0.95625 0.0 